[General]

#network = http.wired.nServers

cmdenv-express-mode = true

tkenv-plugin-path = ../../../../etc/plugins
# tkenv-default-run = 1

record-eventlog = true

**.cli[*].tcpApp[0].module-eventlog-recording = true
**.srv[*].tcpApp[0].module-eventlog-recording = true
**.module-eventlog-recording = false

#**.srv[*].numPcapRecorders = 1
#**.srv[*].pcapRecorder[0].pcapFile = "results/server.pcap"
#**.cli[*].numPcapRecorders = 1
#**.cli[*].pcapRecorder[0].pcapFile = "results/client.pcap"

**.cli[*].tcpApp[0].**.vector-recording = true
**.srv[*].tcpApp[0].**.vector-recording = true
**.cli[*].tcp.**.vector-recording = true
**.srv[*].tcp.**.vector-recording = true
**.vector-recording = true

**.cli[*].tcpApp[0].**.scalar-recording = true
**.srv[*].tcpApp[0].**.scalar-recording = true
**.cli[*].tcp.**.scalar-recording = true
**.srv[*].tcp.**.scalar-recording = true
**.scalar-recording = false

sim-time-limit = 10min

#**.configLine.delay = 100s
#**.configLine.delay = datarate = 1bps

# Controller
**.controller.logLevel = 0
**.controller.config = xmldoc("controller_cfg.xml","//controller-profile[@id='uniform']")
**.controller.events = ""
**.controller.eventsSection = ""

# udp app (off)
**.numUdpApps = 0

# tcp apps
**.cli[*].numTcpApps = 1
**.cli[*].tcpApp[0].typename = "HarBrowser"
**.cli[*].tcpApp[0].httpProtocol = 11
**.cli[*].tcpApp[0].logLevel = 1
**.cli[*].tcpApp[0].logFile = "results/client.log"
**.cli[*].tcpApp[0].config = xmldoc("browser_cfg.xml","//user-profile[@id='normal']")
**.cli[*].tcpApp[0].activationTime = 0.0

# Servers
**.srv[*].numTcpApps = 1
**.srv[*].tcpApp[0].typename = "HarServer"
**.srv[*].tcpApp[0].port = 80
**.srv[*].tcpApp[0].httpProtocol = 11
**.srv[*].tcpApp[0].logLevel = 1
**.srv[*].tcpApp[0].logFile = "results/server.log"
**.srv[*].tcpApp[0].config = xmldoc("server_cfg.xml","//server-profile[@id='normal']")
**.srv[*].tcpApp[0].activationTime = 0.0

# tcp settings
**.tcp.mss = 1460			#default 1024
**.tcp.advertisedWindow = 20440			#default 14336  # 14*mss
**.tcp.tcpAlgorithmClass = "TCPReno"
**.tcp.recordStats = true
# -- add by wangqian, 2012-05-14
**.tcp.delayedAcksEnabled = false
**.tcp.nagleEnabled = false
**.tcp.limitedTransmitEnabled = false
**.tcp.increasedlWEnabled = false
**.tcp.sackSupport = false
**.tcp.windowScalingSupport = false
**.tcp.timestampSupport = false
# --add end


# ip settings
**.routingFile = ""
**.ip.procDelay = 10000us
**.cli[*].IPForward = false
**.srv.IPForward = false

# ARP configuration
**.arp.retryTimeout = 1s
**.arp.retryCount = 3
**.arp.cacheTimeout = 100s
**.networkLayer.proxyARP = true  # Host's is hardwired "false"

# NIC configuration
**.ppp[*].queueType = "DropTailQueue" # in routers
**.ppp[*].queue.frameCapacity = 10  # in routers

# hook names
**.qosBehaviorClass = "EnqueueWithoutQoS"

# nam trace
**.nam.logfile = "trace.nam"
**.nam.prolog = ""
**.namid = -1  # auto
